tests/fuzzer/corpus_json/24_columnar_21_random_022.json
{
  "version": "1.0",
  "type": "input",
  "is_batch": false,
  "attributes": {
    "node": [
      "id",
      "u_rated"
    ],
    "source": [
      "id",
      "node",
      "status",
      "u_ref",
      "u_ref_angle",
      "sk",
      "rx_ratio",
      "z01_ratio"
    ],
    "line": [
      "id",
      "from_node",
      "to_node",
      "from_status",
      "to_status",
      "r1",
      "x1",
      "c1",
      "tan1",
      "r0",
      "x0",
      "c0",
      "tan0",
      "i_n"
    ],
    "sym_load": [
      "id",
      "node",
      "status",
      "type",
      "p_specified",
      "q_specified"
    ]
  },
  "data": {
    "node": [
      [
        0,
        400.0
      ],
      [
        1,
        400.0
      ],
      [
        2,
        400.0
      ],
      [
        3,
        400.0
      ]
    ],
    "source": [
      [
        4,
        0,
        1,
        1.099726130734583,
        0.0,
        23713785.524111655,
        0.09212682285142654,
        1.0
      ],
      [
        5,
        3,
        1,
        1.0,
        0.0,
        651456098.4338636,
        0.1,
        1.0
      ]
    ],
    "line": [
      [
        6,
        0,
        1,
        1,
        1,
        1.7282241878128335,
        4.447754698979015,
        2.31741489986076e-07,
        0.0,
        0.3,
        0.3,
        1e-09,
        0.0,
        959.8902112183324
      ],
      [
        7,
        1,
        2,
        1,
        1,
        1.597259192768684,
        3.0057114429449827,
        9.320876043438781e-07,
        0.0,
        0.3,
        0.3,
        1e-09,
        0.0,
        688.4077647015237
      ],
      [
        8,
        2,
        3,
        1,
        1,
        4.619245843217186,
        3.5405749039197416,
        4.844033403057124e-08,
        0.0,
        0.3,
        0.3,
        1e-09,
        0.0,
        882.5537116907936
      ]
    ],
    "sym_load": [
      [
        9,
        1,
        1,
        1,
        -15696.277931134682,
        -6389.3775865721
      ],
      [
        10,
        2,
        1,
        2,
        87597.78101576085,
        5479.042825556135
      ]
    ]
  }
}
